[TITLE]
Tutorial 1 Epanet
Notes

[JUNCTIONS]
;ID              	Elev        	Demand      	Pattern         
 2               	0.5         	0           	                	;
 3               	3           	10          	                	;
 4               	2           	5           	                	;
 5               	0.5         	5           	                	;
 6               	4           	20          	                	;
 7               	17          	0           	                	;
 8               	17          	0           	                	;
 9               	2           	40          	                	;

[RESERVOIRS]
;ID              	Head        	Pattern         
 1               	0.5         	                	;

[TANKS]
;ID              	Elevation   	InitLevel   	MinLevel    	MaxLevel    	Diameter    	MinVol      	VolCurve
 10              	38          	5.25        	2           	7           	20          	0           	                	;

[PIPES]
;ID              	Node1           	Node2           	Length      	Diameter    	Roughness   	MinorLoss   	Status
 1               	1               	2               	1           	300         	1.2         	0           	Open  	;
 2               	3               	4               	500         	250         	1.2         	0           	Open  	;
 3               	3               	5               	500         	250         	1.2         	0           	Open  	;
 4               	4               	6               	500         	200         	1.2         	0           	Open  	;
 5               	5               	6               	500         	150         	1.2         	0           	Open  	;
 6               	6               	7               	500         	200         	1.2         	0           	Open  	;
 8               	5               	7               	750         	150         	1.2         	0           	Open  	;
 7               	8               	10              	500         	300         	1.2         	0           	Open  	;

[PUMPS]
;ID              	Node1           	Node2           	Parameters
 9               	2               	3               	HEAD 1	;

[VALVES]
;ID              	Node1           	Node2           	Diameter    	Type	Setting     	MinorLoss   
 10              	7               	8               	300         	TCV 	0           	0           	;
 11              	4               	9               	300         	PRV 	40          	0           	;

[TAGS]

[DEMANDS]
;Junction        	Demand      	Pattern         	Category

[STATUS]
;ID              	Status/Setting

[PATTERNS]
;ID              	Multipliers
;
 1               	0.5         	1.3         	1           	1.2         

[CURVES]
;ID              	X-Value     	Y-Value
;PUMP: PUMP: 
 1               	0           	55          
 1               	90          	50          
 1               	130         	40          

[CONTROLS]


[RULES]


[ENERGY]
 Global Efficiency  	75
 Global Price       	0
 Demand Charge      	0

[EMITTERS]
;Junction        	Coefficient

[QUALITY]
;Node            	InitQual

[SOURCES]
;Node            	Type        	Quality     	Pattern

[REACTIONS]
;Type     	Pipe/Tank       	Coefficient


[REACTIONS]
 Order Bulk            	1
 Order Tank            	1
 Order Wall            	1
 Global Bulk           	0
 Global Wall           	0
 Limiting Potential    	0
 Roughness Correlation 	0

[MIXING]
;Tank            	Model

[TIMES]
 Duration           	0:00 
 Hydraulic Timestep 	1:00 
 Quality Timestep   	0:05 
 Pattern Timestep   	6:00 
 Pattern Start      	0:00 
 Report Timestep    	1:00 
 Report Start       	0:00 
 Start ClockTime    	12 am
 Statistic          	NONE

[REPORT]
 Status             	No
 Summary            	No
 Page               	0

[OPTIONS]
 Units              	LPS
 Headloss           	D-W
 Specific Gravity   	1
 Viscosity          	1
 Trials             	40
 Accuracy           	0.001
 CHECKFREQ          	2
 MAXCHECK           	10
 DAMPLIMIT          	0
 Unbalanced         	Continue 10
 Pattern            	1
 Demand Multiplier  	1.0
 Emitter Exponent   	0.5
 Quality            	None mg/L
 Diffusivity        	1
 Tolerance          	0.01

[COORDINATES]
;Node            	X-Coord         	Y-Coord
 2               	-741.99         	1871.84         
 3               	809.44          	1854.97         
 4               	3001.69         	1838.11         
 5               	758.85          	4030.35         
 6               	3069.14         	4047.22         
 7               	3254.64         	5986.51         
 8               	5649.24         	6087.69         
 9               	5935.92         	1416.53         
 1               	-1517.71        	1804.38         
 10              	7639.12         	6846.54         

[VERTICES]
;Link            	X-Coord         	Y-Coord
 4               	3090.22         	3756.32         
 5               	1939.29         	4047.22         
 8               	792.58          	4300.17         
 8               	843.17          	4468.80         
 8               	893.76          	4620.57         
 8               	961.21          	4755.48         
 8               	1062.39         	4924.11         
 8               	1129.85         	5042.16         
 8               	1231.03         	5160.20         
 8               	1332.21         	5278.25         
 8               	1416.53         	5396.29         
 8               	1551.43         	5514.33         
 8               	1686.34         	5598.65         
 8               	1804.38         	5666.10         
 8               	1973.02         	5733.56         
 8               	2209.11         	5801.01         
 8               	2411.47         	5902.19         
 8               	2546.37         	5952.78         
 8               	2715.01         	6003.37         
 8               	2951.10         	6003.37         
 8               	3086.00         	5986.51         

[LABELS]
;X-Coord           Y-Coord          Label & Anchor Node
 -1720.07         2327.15          "deposito"                 

[BACKDROP]
 DIMENSIONS     	0.00            	0.00            	10000.00        	10000.00        
 UNITS          	None
 FILE           	
 OFFSET         	0.00            	0.00            

[END]
